35
2.out	Energy: -844266.8868424
O          0.41799        2.10682        0.66737
C          0.97033        2.30527       -0.52131
C          2.49154        2.23118       -0.56600
N          2.95504        0.89283       -0.26136
C          2.88626        0.40393        0.98915
C          3.12341       -1.09096        1.11431
N          1.95094       -1.79513        0.63720
C          1.73252       -1.94883       -0.68487
C          0.34641       -2.46215       -1.04706
N         -0.62905       -1.39905       -0.96115
C         -1.15341       -1.00373        0.20979
C         -2.24505        0.05499        0.11582
C         -3.56444       -0.66311        0.40235
S         -5.01909        0.43186        0.51725
N         -2.24979        0.67571       -1.19471
H         -5.34122        0.43569       -0.77920
H         -3.48759       -1.16121        1.36142
H         -3.75431       -1.41834       -0.35366
H         -2.04951        0.75332        0.92850
H         -1.51040        1.36437       -1.26237
H         -3.11239        1.18112       -1.32427
O         -0.81811       -1.48001        1.28400
H         -0.97164       -0.92924       -1.78165
H          0.38546       -2.82364       -2.06607
H          0.05223       -3.27102       -0.38470
O          2.55389       -1.65632       -1.53683
H          1.13760       -1.84357        1.23605
H          3.28133       -1.32331        2.15900
H          3.98175       -1.40775        0.53314
O          2.56098        1.09017        1.94795
H          3.05358        0.22649       -1.01281
H          2.81299        2.49852       -1.56285
H          2.92044        2.92638        0.14961
O          0.29739        2.48806       -1.49660
H          1.09457        1.91270        1.34373
